# generated using pymatgen
data_Li0.50066667Ti0.16666667Mn1.168O1
_symmetry_space_group_name_H-M   'P 1'
_cell_length_a   2.96984848
_cell_length_b   2.96984848
_cell_length_c   2.96984848
_cell_angle_alpha   60.00000000
_cell_angle_beta   60.00000000
_cell_angle_gamma   60.00000000
_symmetry_Int_Tables_number   1
_chemical_formula_structural   Li0.50066667Ti0.16666667Mn1.168O1
_chemical_formula_sum   'Li0.50066667 Ti0.16666667 Mn1.168 O1'
_cell_volume   18.52199998
_cell_formula_units_Z   1
loop_
 _symmetry_equiv_pos_site_id
 _symmetry_equiv_pos_as_xyz
  1  'x, y, z'
loop_
 _atom_type_symbol
 _atom_type_oxidation_number
  Li+  1.0
  Ti4+  4.0
  Mn2+  2.0
  Mn3+  3.0
  Mn4+  4.0
  O2-  -2.0
loop_
 _atom_site_type_symbol
 _atom_site_label
 _atom_site_symmetry_multiplicity
 _atom_site_fract_x
 _atom_site_fract_y
 _atom_site_fract_z
 _atom_site_occupancy
  Li+  Li0  1  0.75000000  0.75000000  0.75000000  0.167
  Mn2+  Mn1  1  0.75000000  0.75000000  0.75000000  0.167
  Mn3+  Mn2  1  0.75000000  0.75000000  0.75000000  0.167
  Li+  Li3  1  0.25000000  0.25000000  0.25000000  0.167
  Mn2+  Mn4  1  0.25000000  0.25000000  0.25000000  0.167
  Mn3+  Mn5  1  0.25000000  0.25000000  0.25000000  0.167
  Li+  Li6  1  0.00000000  0.00000000  0.00000000  0.166666666667
  Ti4+  Ti7  1  0.00000000  0.00000000  0.00000000  0.166666666667
  Mn2+  Mn8  1  0.00000000  0.00000000  0.00000000  0.166666666667
  Mn3+  Mn9  1  0.00000000  0.00000000  0.00000000  0.166666666667
  Mn4+  Mn10  1  0.00000000  0.00000000  0.00000000  0.166666666667
  O2-  O11  1  0.50000000  0.50000000  0.50000000  1.0

